NDPIS/Case1/WithDG/Case1_WithDG_VLN_Node.Txt

LINE-GROUND and LINE-LINE VOLTAGES BY BUS & NODE

Bus       Node    VLN (kV)   Angle      pu     Base kV    Node-Node   VLL (kV)  Angle      pu

SOURCEBUS 1       6.5376 /_   -0.5   0.99329    11.400        1-2     11.323 /_   29.5   0.99329
   -      2       6.5376 /_ -120.5   0.99329    11.400        2-3     11.323 /_  -90.5   0.99329
   -      3       6.5376 /_  119.5   0.99329    11.400        3-1     11.323 /_  149.5   0.99329
2 ....... 1       6.5049 /_   -0.6   0.98832    11.400        1-2     11.267 /_   29.4   0.98832
   -      2       6.5049 /_ -120.6   0.98832    11.400        2-3     11.267 /_  -90.6   0.98832
   -      3       6.5049 /_  119.4   0.98832    11.400        3-1     11.267 /_  149.4   0.98832
3 ....... 1       6.4785 /_   -0.8    0.9843    11.400        1-2     11.221 /_   29.2    0.9843
   -      2       6.4785 /_ -120.8    0.9843    11.400        2-3     11.221 /_  -90.8    0.9843
   -      3       6.4785 /_  119.2    0.9843    11.400        3-1     11.221 /_  149.2    0.9843
4 ....... 1      0.21726 /_    0.4   0.99027     0.380        1-2     0.3763 /_   30.4   0.99027
   -      2      0.21726 /_ -119.6   0.99027     0.380        2-3     0.3763 /_  -89.6   0.99027
   -      3      0.21726 /_  120.4   0.99027     0.380        3-1     0.3763 /_  150.4   0.99027
